%mem=1gb
%chk=./job_LIG.chk
#P B3LYP/6-31G* NoSymm   POP=MK 

Input file generated by MolarisTools.

0 1
 C       -1.6950000000        1.2070000000       -0.0530000000
 C       -0.3190000000        1.8190000000        0.1690000000
 C       -0.2570000000        3.2880000000       -0.2560000000
 C        1.0860000000        3.9590000000        0.1040000000
 O       -1.6160000000       -0.1960000000        0.1830000000
 O       -1.3170000000        4.0030000000        0.3870000000
 N        2.2600000000        3.3140000000       -0.4760000000
 H       -2.0350000000        1.3630000000       -1.0820000000
 H       -2.4320000000        1.6290000000        0.6370000000
 H        0.4280000000        1.2310000000       -0.3780000000
 H       -0.0670000000        1.7200000000        1.2330000000
 H       -0.4260000000        3.3580000000       -1.3380000000
 H        1.1940000000        4.0100000000        1.1950000000
 H        1.0570000000        5.0010000000       -0.2390000000
 H       -2.5100000000       -0.5530000000        0.0450000000
 H       -1.2880000000        4.9190000000        0.0590000000
 H        2.3740000000        2.3860000000       -0.0650000000
 H        3.0950000000        3.8340000000       -0.2050000000

